data_crystal

_audit_creation_method 'AiiDA-DDEC plugin'

_cell_length_a        10.78937
_cell_length_b        10.78937
_cell_length_c        14.22384

_cell_angle_alpha     90.00000
_cell_angle_beta     90.00000
_cell_angle_gamma     89.99820

_symmetry_space_group_name_Hall 'P 1'
_symmetry_space_group_name_H-M  'P 1'

loop_
_symmetry_equiv_pos_as_xyz
 'x,y,z'

loop_
_atom_site_label
_atom_site_type_symbol
_atom_site_fract_x
_atom_site_fract_y
_atom_site_fract_z
_atom_site_charge
Ag         Ag      0.50000   0.50000   0.18435   0.24631
Ag         Ag      0.50000   0.50000   0.81565   0.24632
Ag         Ag      0.00000   0.00000   0.68440   0.24647
Ag         Ag      0.00000   0.00000   0.31560   0.24648
H          H       0.36416   0.36416   0.62941   0.09481
H          H       0.31918   0.31918   0.91698   0.09066
H          H       0.15538   0.15538   0.88764   0.08521
H          H       0.63584   0.63584   0.62941   0.09485
H          H       0.68082   0.68082   0.91698   0.09064
H          H       0.84462   0.84461   0.88764   0.08521
H          H       0.63584   0.63584   0.37059   0.09485
H          H       0.68082   0.68082   0.08302   0.09064
H          H       0.84462   0.84461   0.11236   0.08521
H          H       0.36416   0.36416   0.37059   0.09482
H          H       0.31918   0.31918   0.08302   0.09065
H          H       0.15538   0.15538   0.11236   0.08521
H          H       0.86401   0.13599   0.12932   0.09479
H          H       0.81906   0.18094   0.41699   0.09039
H          H       0.65528   0.34472   0.38761   0.08514
H          H       0.13599   0.86401   0.12932   0.09478
H          H       0.18094   0.81906   0.41699   0.09039
H          H       0.34472   0.65528   0.38761   0.08516
H          H       0.13599   0.86401   0.87068   0.09477
H          H       0.18094   0.81906   0.58301   0.09039
H          H       0.34472   0.65528   0.61239   0.08516
H          H       0.86401   0.13599   0.87068   0.09479
H          H       0.81906   0.18094   0.58301   0.09040
H          H       0.65528   0.34472   0.61239   0.08512
C          C       0.19275   0.19275   0.57639   0.23055
C          C       0.22630   0.22630   0.66994   0.06016
C          C       0.31765   0.31765   0.68746   0.01040
C          C       0.29173   0.29173   0.84648  -0.03522
C          C       0.20175   0.20175   0.82921   0.04367
C          C       0.80725   0.80725   0.57639   0.23050
C          C       0.77370   0.77370   0.66994   0.06019
C          C       0.68235   0.68235   0.68746   0.01036
C          C       0.70827   0.70827   0.84648  -0.03519
C          C       0.79825   0.79825   0.82921   0.04366
C          C       0.80725   0.80725   0.42362   0.23051
C          C       0.77370   0.77370   0.33006   0.06019
C          C       0.68235   0.68235   0.31254   0.01035
C          C       0.70827   0.70827   0.15352  -0.03523
C          C       0.79825   0.79825   0.17079   0.04367
C          C       0.19275   0.19275   0.42362   0.23052
C          C       0.22630   0.22630   0.33006   0.06016
C          C       0.31765   0.31765   0.31254   0.01039
C          C       0.29173   0.29173   0.15352  -0.03522
C          C       0.20175   0.20175   0.17079   0.04367
C          C       0.69264   0.30736   0.07640   0.23045
C          C       0.72625   0.27375   0.16996   0.06055
C          C       0.81761   0.18239   0.18748   0.01005
C          C       0.79167   0.20833   0.34647  -0.03492
C          C       0.70168   0.29832   0.32921   0.04396
C          C       0.30736   0.69264   0.07640   0.23044
C          C       0.27375   0.72625   0.16996   0.06061
C          C       0.18239   0.81761   0.18748   0.01004
C          C       0.20833   0.79167   0.34647  -0.03487
C          C       0.29832   0.70168   0.32921   0.04389
C          C       0.30736   0.69264   0.92360   0.23045
C          C       0.27375   0.72625   0.83004   0.06061
C          C       0.18239   0.81761   0.81252   0.01006
C          C       0.20833   0.79167   0.65353  -0.03488
C          C       0.29832   0.70168   0.67079   0.04389
C          C       0.69264   0.30736   0.92360   0.23046
C          C       0.72625   0.27375   0.83004   0.06055
C          C       0.81761   0.18239   0.81252   0.01004
C          C       0.79167   0.20833   0.65353  -0.03499
C          C       0.70168   0.29832   0.67079   0.04399
N          N       0.10977   0.10977   0.54798  -0.19308
N          N       0.35028   0.35028   0.77423  -0.15615
N          N       0.16720   0.16720   0.74286  -0.24947
N          N       0.89023   0.89023   0.54798  -0.19307
N          N       0.64972   0.64972   0.77423  -0.15613
N          N       0.83280   0.83280   0.74286  -0.24949
N          N       0.89023   0.89023   0.45202  -0.19307
N          N       0.64972   0.64972   0.22577  -0.15609
N          N       0.83280   0.83280   0.25714  -0.24949
N          N       0.10977   0.10977   0.45202  -0.19306
N          N       0.35028   0.35028   0.22577  -0.15613
N          N       0.16720   0.16720   0.25714  -0.24947
N          N       0.60966   0.39034   0.04798  -0.19330
N          N       0.85027   0.14973   0.27425  -0.15582
N          N       0.66714   0.33286   0.24287  -0.25004
N          N       0.39035   0.60965   0.04798  -0.19324
N          N       0.14973   0.85027   0.27425  -0.15596
N          N       0.33287   0.66713   0.24287  -0.24996
N          N       0.39035   0.60965   0.95202  -0.19328
N          N       0.14973   0.85027   0.72575  -0.15596
N          N       0.33287   0.66713   0.75713  -0.24996
N          N       0.60966   0.39034   0.95202  -0.19331
N          N       0.85027   0.14973   0.72575  -0.15577
N          N       0.66714   0.33286   0.75713  -0.25005
O          O       0.24991   0.24991   0.50000  -0.20951
O          O       0.75009   0.75009   0.50000  -0.20949
O          O       0.74981   0.25019   0.00000  -0.20881
O          O       0.25020   0.74980   0.00000  -0.20888

